Circuit: * C:\Users\bode_\Desktop\proiect scia\Draft1.asc

WARNING: Less than two connections to node nc_01.  This node is used by rin1.
Direct Newton iteration for .op point succeeded.

Date: Thu Jan  4 00:14:24 2024
Total elapsed time: 0.181 seconds.

tnom = 27
temp = 27
method = modified trap
totiter = 2093
traniter = 2082
tranpoints = 1042
accept = 1042
rejected = 0
matrix size = 27
fillins = 24
solver = Normal
Avg thread counts: 1.1/1.3/1.3/1.1
Matrix Compiler1: 6.95 KB object code size  1.7/1.1/[0.7]
Matrix Compiler2: 3.67 KB object code size  0.6/0.7/[0.5]

