Circuit: * C:\Users\bode_\Desktop\proiect scia\Filtru analogic.asc

Direct Newton iteration for .op point succeeded.
N-Period=1
Fourier components of V(out)
DC component:-1.01023e-05

Harmonic	Frequency	 Fourier 	Normalized	 Phase  	Normalized
 Number 	  [Hz]   	Component	 Component	[degree]	Phase [deg]
    1   	 4.000e+3	 4.913e-5	 1.000e+0	 -113.40°	    0.00°
    2   	 8.000e+3	 2.159e-5	 4.393e-1	  157.83°	  271.23°
    3   	 1.200e+4	 5.347e-6	 1.088e-1	 -133.10°	  -19.70°
    4   	 1.600e+4	 2.090e-6	 4.253e-2	  -67.80°	   45.60°
    5   	 2.000e+4	 1.921e-6	 3.910e-2	    9.21°	  122.62°
    6   	 2.400e+4	 1.156e-6	 2.353e-2	   72.72°	  186.13°
    7   	 2.800e+4	 5.240e-7	 1.066e-2	  103.88°	  217.28°
    8   	 3.200e+4	 7.516e-7	 1.530e-2	 -137.98°	  -24.58°
    9   	 3.600e+4	 5.431e-7	 1.105e-2	  -74.30°	   39.10°
   10   	 4.000e+4	 4.566e-7	 9.292e-3	   -1.42°	  111.98°
   11   	 4.400e+4	 3.416e-7	 6.952e-3	   72.63°	  186.03°
   12   	 4.800e+4	 2.754e-7	 5.605e-3	  146.60°	  260.00°
   13   	 5.200e+4	 2.085e-7	 4.243e-3	  178.53°	  291.94°
   14   	 5.600e+4	 1.861e-7	 3.788e-3	  -75.00°	   38.40°
   15   	 6.000e+4	 1.780e-7	 3.623e-3	  -10.99°	  102.41°
Partial Harmonic Distortion: 45.763538%
Total Harmonic Distortion:   45.769913%



Date: Thu Jan 11 14:30:44 2024
Total elapsed time: 0.111 seconds.

tnom = 27
temp = 27
method = modified trap
totiter = 2090
traniter = 2086
tranpoints = 1044
accept = 1043
rejected = 1
matrix size = 30
fillins = 41
solver = Normal
Avg thread counts: 1.1/1.3/1.3/1.1
Matrix Compiler1: 3.96 KB object code size  1.1/0.8/[0.4]
Matrix Compiler2: 4.14 KB object code size  0.6/1.4/[0.4]

