Circuit: * C:\Users\bode_\Desktop\proiect scia\PROIECT SCIA.asc

Direct Newton iteration for .op point succeeded.
Semiconductor Device Operating Points:
                        --- Diodes ---
Name:    d:u2:21     d:u2:22     d:u2:5      d:u2:6      d:u2:1
Model:   u2:esd      u2:esd       u2:x1       u2:x2       u2:iq
Id:     -1.50e-11   -1.50e-11   -7.55e-06   -7.45e-06    7.00e-04
Vd:     -1.50e+01   -1.50e+01   -1.51e+01   -1.49e+01    3.00e+01
Req:     1.00e-12    1.00e-12    5.00e-07    5.00e-07    5.00e-04
CAP:     0.00e+00    0.00e+00    0.00e+00    0.00e+00    0.00e+00

Name:    d:u2:2      d:u2:3
Model:  u2:20ohm     u2:45ma
Id:     -5.99e-06    5.99e-06
Vd:     -1.80e-04    5.99e-05
Req:     3.33e-02    1.00e-01
CAP:     0.00e+00    0.00e+00



Date: Tue Jan  2 22:55:47 2024
Total elapsed time: 0.157 seconds.

tnom = 27
temp = 27
method = trap
totiter = 5
traniter = 0
tranpoints = 0
accept = 0
rejected = 0
matrix size = 17
fillins = 8
solver = Normal
Avg thread counts: 4.0/0.0/4.0/4.0
Matrix Compiler1: 1.15 KB object code size
Matrix Compiler2: 1.86 KB object code size
