Circuit: * C:\Users\bode_\Desktop\proiect scia\Redresor.asc

Direct Newton iteration for .op point succeeded.
N-Period=1
Fourier components of V(out)
DC component:0.317062

Harmonic	Frequency	 Fourier 	Normalized	 Phase  	Normalized
 Number 	  [Hz]   	Component	 Component	[degree]	Phase [deg]
    1   	 4.000e+3	 4.984e-1	 1.000e+0	  -89.40°	    0.00°
    2   	 8.000e+3	 2.121e-1	 4.256e-1	 -179.30°	  -89.90°
    3   	 1.200e+4	 2.095e-3	 4.204e-3	    7.96°	   97.36°
    4   	 1.600e+4	 4.278e-2	 8.583e-2	 -178.52°	  -89.12°
    5   	 2.000e+4	 2.086e-3	 4.186e-3	    9.17°	   98.58°
    6   	 2.400e+4	 1.870e-2	 3.752e-2	 -177.34°	  -87.94°
    7   	 2.800e+4	 1.998e-3	 4.008e-3	   16.29°	  105.70°
    8   	 3.200e+4	 1.059e-2	 2.124e-2	 -176.26°	  -86.86°
    9   	 3.600e+4	 2.018e-3	 4.048e-3	   19.85°	  109.25°
   10   	 4.000e+4	 6.939e-3	 1.392e-2	 -174.20°	  -84.79°
   11   	 4.400e+4	 1.955e-3	 3.923e-3	   25.50°	  114.90°
   12   	 4.800e+4	 4.956e-3	 9.944e-3	 -172.21°	  -82.81°
   13   	 5.200e+4	 1.936e-3	 3.885e-3	   31.01°	  120.41°
   14   	 5.600e+4	 3.736e-3	 7.497e-3	 -169.69°	  -80.28°
   15   	 6.000e+4	 1.914e-3	 3.840e-3	   35.66°	  125.06°
Partial Harmonic Distortion: 43.683093%
Total Harmonic Distortion:   43.734413%



Date: Thu Jan 11 14:27:43 2024
Total elapsed time: 0.702 seconds.

tnom = 27
temp = 27
method = modified trap
totiter = 40732
traniter = 40710
tranpoints = 19610
accept = 13417
rejected = 6193
matrix size = 22
fillins = 24
solver = Normal
Avg thread counts: 1.0/1.0/1.0/1.0
Matrix Compiler1: 2.39 KB object code size  0.9/0.5/[0.3]
Matrix Compiler2: 2.88 KB object code size  0.5/0.5/[0.3]

